10
Energy =
C    -0.5355115    0.1037195   -1.4714344 
S    -0.8033653   -0.3244335    0.2882510 
C    -1.4736473   -1.9993141   -0.0232432 
O     0.5529550   -0.5052844    0.9042025 
H    -1.4973418    0.1391957   -1.9988559 
H    -0.0674349    1.0943638   -1.4818142 
H     0.1385554   -0.6361126   -1.9210954 
H    -2.4194794   -1.9274627   -0.5753131 
H    -0.7307180   -2.5842561   -0.5798772 
H    -1.6485244   -2.4511020    0.9595485 
