13
Energy =
C    -0.6642191    0.7268140   -1.5060376 
S    -0.4247933    0.8277177    0.2998007 
O     1.0715062    0.8100595    0.5408680 
C    -1.0366846   -0.8455048    0.6927060 
H    -1.7330654    0.6051658   -1.7226151 
H    -0.3065611    1.6758100   -1.9209554 
H    -0.0715996   -0.1116690   -1.8941389 
H    -2.0944280   -0.9191738    0.4101473 
H    -0.4200043   -1.5807168    0.1597494 
H    -0.9319759   -0.9684123    1.7765172 
H     1.7804551   -0.6023543   -0.3483003 
O     1.8274345   -1.4107755   -0.9180516 
H     2.7622828   -1.6615533   -0.9330346 
