16
Energy =
C    -0.3615573   -0.0474692   -1.5642057 
S    -0.6976747   -0.1467003    0.2177068 
C    -1.4720421   -1.7892169    0.2439994 
O     0.6656536   -0.3239528    0.8843313 
O     2.2038066    1.6654872   -0.4281558 
H    -1.3153608    0.0278208   -2.1015935 
H     0.2403938    0.8579460   -1.7096389 
H     0.2032542   -0.9344592   -1.8758413 
H    -2.4390630   -1.7346077   -0.2718588 
H    -0.8027728   -2.5120897   -0.2380517 
H    -1.6086627   -2.0433091    1.3023155 
H     1.8366738    0.9766539    0.1697256 
H     2.4790054    2.3816298    0.1628708 
H     0.4048960   -1.2655508    2.5022711 
O    -0.0207437   -1.8172906    3.1959168 
H     0.1075797   -1.3203614    4.0171772 
