16
Energy =
C     0.2470720   -0.2004424   -1.4187655 
S     1.2047543   -0.6240105    0.0644040 
C     2.8645937   -0.5007161   -0.6709715 
O     1.1052931    0.5644343    1.0063887 
O    -1.3392462    0.9049568    2.1900074 
H     0.4007010   -0.9807509   -2.1756411 
H    -0.8088870   -0.1772383   -1.1058322 
H     0.5735860    0.7805326   -1.7866100 
H     2.9780017   -1.2714002   -1.4436109 
H     2.9963223    0.5046803   -1.0892466 
H     3.5830139   -0.6728537    0.1380832 
H    -0.4187281    0.8146478    1.8252188 
H    -1.3272354    0.4101738    3.0226967 
H    -3.4099351    0.3651180   -0.1786983 
O    -2.7019505   -0.2440998    0.0773586 
H    -2.3066950    0.1659526    0.8898643 
