19
Energy =
C    -1.2540197    0.7879605   -1.4583847 
S    -1.6073844    0.9565531    0.3156543 
O    -0.4067756    1.6331730    0.9563126 
C    -1.5204017   -0.8111547    0.7420880 
O     2.1079406    0.7785747    1.3438703 
O     1.9670381   -1.7615331    0.4935499 
H    -2.1230322    0.3143727   -1.9346208 
H    -1.1393446    1.8088615   -1.8410954 
H    -0.3444120    0.1903509   -1.6284480 
H    -2.3143806   -1.3410003    0.2005873 
H    -0.5334933   -1.2151979    0.4847011 
H    -1.6968590   -0.8828185    1.8212580 
H     1.1819828    1.1092679    1.1514958 
H     2.2295327    0.9382479    2.2916868 
H     2.1080859   -0.8436808    0.8705184 
H     2.7764890   -2.2580948    0.6819754 
H     1.5777595   -1.5227201   -1.2293885 
O     1.2435866   -1.2990441   -2.1353408 
H     1.9804385   -0.8282478   -2.5523056 
