22
Energy =
C    -1.0850301   -1.2247034   -0.6496098 
S    -0.8455725   -1.5327116    1.1243190 
C     0.9255592   -1.1412930    1.1929774 
O    -1.5774449   -0.4234633    1.8709450 
O    -1.0149889    2.1122699    1.2803018 
O     1.0717172    2.4409708   -0.3588706 
O     2.0103451    0.7335054   -2.2506504 
H    -0.4336069   -1.9013093   -1.2182379 
H    -2.1418274   -1.4200428   -0.8628476 
H    -0.8330872   -0.1799979   -0.8694299 
H     1.4579740   -1.7879118    0.4815820 
H     1.0689566   -0.0873905    0.9214652 
H     1.2511978   -1.3225538    2.2232890 
H    -1.2456227    1.1630970    1.5269815 
H    -1.8533633    2.5253614    1.0270930 
H     0.2712540    2.3243167    0.2344556 
H     1.7422817    2.8678850    0.1938134 
H     1.6635409    1.3379787   -1.5388570 
H     1.6214806    1.0678966   -3.0719574 
O     1.8456735   -1.9982361   -1.8645115 
H     2.6616364   -2.3860916   -2.2122002 
H     1.9351862   -1.0240394   -2.0287482 
