20
Energy =
S     0.6781121   -0.8744276   -0.2588857 
O     0.7598041   -0.8619262    1.2481767 
C     1.6894918    0.5214929   -0.8634551 
C    -0.9363156   -0.1534801   -0.7155874 
H    -1.7007405   -0.8299928   -0.3167801 
H    -1.0197671    0.8477717   -0.2719241 
H    -1.0121413   -0.1121748   -1.8101571 
H     1.5921566    0.5881581   -1.9549551 
H     1.3493042    1.4446092   -0.3753167 
H     2.7276090    0.2910828   -0.5980606 
S    -0.5244692    2.6888192    2.3266733 
O    -0.1834589    2.8223628    0.8602311 
C    -0.2461497    4.3362413    3.0639113 
C     0.8736226    1.8444410    3.1273700 
H     0.6772916    1.7679122    4.2048247 
H     0.9189151    0.8458354    2.6687133 
H     1.7975216    2.4040072    2.9325243 
H    -0.3619491    4.2760416    4.1535702 
H     0.7584650    4.6827494    2.7909231 
H    -1.0048792    5.0054237    2.6431609 
