23
Energy =
C    -1.3293198    0.3829957   -1.2278978 
S    -0.7818378   -0.5436468    0.2461680 
C     0.4535235   -1.5785378   -0.6100883 
O    -1.9240848   -1.4585563    0.6342914 
H     0.8528175   -2.2724804    0.1379456 
H    -0.0494860   -2.1261716   -1.4172572 
H     1.2582590   -0.9384867   -0.9936050 
H    -1.7023755   -0.3341027   -1.9706740 
H    -0.4893276    0.9725795   -1.6167961 
H    -2.1320261    1.0514120   -0.8968776 
S    -3.9135501   -5.7670121   -2.6886918 
O    -2.5220234   -5.4570696   -2.1784284 
C    -5.0849199   -5.0693175   -1.4759078 
H    -4.9634963   -5.6491534   -0.5541739 
H    -6.1085635   -5.1806904   -1.8554739 
H    -4.8258254   -4.0159761   -1.3086499 
C    -4.2623083   -4.5706107   -4.0221565 
H    -4.0566414   -3.5598988   -3.6463890 
H    -3.5897754   -4.8208180   -4.8503099 
H    -5.3060454   -4.6815055   -4.3427025 
H    -2.4066408   -3.6341632   -1.8334903 
O    -2.6102093   -2.6691935   -1.8129230 
H    -2.4901956   -2.3867715   -0.8754710 
