26
Energy =
C    -1.1444578    0.2800440   -1.1234714 
S    -1.0319091   -0.9915238    0.1737316 
C     0.1182194   -2.1025140   -0.6959552 
O    -0.2338140   -0.3815758    1.3196545 
O     2.1975746    0.5656598    0.1838452 
H    -1.7009958   -0.1332580   -1.9742665 
H    -1.6871283    1.1236896   -0.6801060 
H    -0.1324202    0.5884815   -1.4131999 
H    -0.3681733   -2.4790643   -1.6046818 
H     1.0348416   -1.5451880   -0.9294367 
H     0.3316600   -2.9340367   -0.0151844 
H     1.4402624    0.2160552    0.7066618 
H     1.9871776    1.5235329    0.0985739 
O     1.6841413    3.3582755    0.3884334 
S     2.5881867    3.8788511    1.4990357 
C     4.2476715    3.2255091    1.1350583 
C     2.2584458    2.8563522    2.9681271 
H     4.9172317    3.4668690    1.9702500 
H     4.1707532    2.1415244    0.9786697 
H     4.5927948    3.7260472    0.2236359 
H     2.9063666    3.1957985    3.7862588 
H     1.2029292    3.0135267    3.2208744 
H     2.4376444    1.8027694    2.7210869 
H    -0.1173959    2.8419938    1.0510385 
O    -0.8816938    2.4834306    1.5467810 
H    -0.6810425    1.5283440    1.6246320 
