15
Energy =
O     7.6187945    6.8362379    7.5969148 
O     6.4736261    6.5234015    5.1941776 
H     7.1510716    6.3548057    8.2955137 
H     8.5428500    6.4420179    7.5829038 
H     6.8849480    6.6450071    6.1026220 
H     6.1629596    7.4037135    4.9370773 
O    10.0486940    5.7152851    7.5116946 
H    10.1585415    5.2397366    6.6333514 
O    10.2848241    4.4954848    5.1416831 
H     9.5244404    4.7739704    4.5474604 
O     8.2291753    5.2575751    3.6008961 
H     7.5550571    5.7540418    4.1543163 
H    10.7912905    6.3349744    7.5631826 
H    10.2278380    3.5297649    5.1906571 
H     8.4951092    5.8723804    2.9014906 
